** written by FreeCAD inp file writer for CalculiX,Abaqus meshes
** highest dimension mesh elements only.

** Nodes
*Node, NSET=Nall
1, 0, 0, 0
2, 0, 18, 0
3, 60, 0, 0
4, 60, 18, 0
5, 0, 1, 0
6, 0, 2, 0
7, 0, 3, 0
8, 0, 4, 0
9, 0, 5, 0
10, 0, 6, 0
11, 0, 7, 0
12, 0, 8, 0
13, 0, 9, 0
14, 0, 10, 0
15, 0, 11, 0
16, 0, 12, 0
17, 0, 13, 0
18, 0, 14, 0
19, 0, 15, 0
20, 0, 16, 0
** ... 1139 like lines cut


** Face elements
*Element, TYPE=S4, ELSET=Efaces
157, 193, 283, 392, 282
158, 530, 463, 558, 395
159, 641, 725, 804, 777
160, 463, 458, 641, 558
161, 725, 640, 793, 804
162, 804, 881, 626, 777
163, 187, 290, 394, 280
164, 187, 280, 364, 200
165, 393, 456, 560, 394
166, 280, 394, 560, 458
167, 393, 473, 561, 456
168, 725, 560, 456, 640
169, 641, 458, 560, 725
170, 865, 983, 1010, 982
171, 392, 283, 200, 364
172, 463, 364, 280, 458
173, 561, 473, 369, 559
174, 640, 456, 561, 625
175, 793, 640, 625, 722
176, 804, 793, 947, 881
** ... 1060 like lines cut

** Define element set Eall
*ELSET, ELSET=Eall
Efaces



***********************************************************
** Element sets for materials and FEM element type (solid, shell, beam, fluid)
** written by write_element_sets_material_and_femelement_type function
*ELSET,ELSET=SolidMaterialElementGeometry2D
Efaces

***********************************************************
** Node sets for prescribed displacement constraint
** written by write_node_sets_constraints_displacement function
** FemConstraintDisplacement
*NSET,NSET=FemConstraintDisplacement
3,
** FemConstraintDisplacement001
*NSET,NSET=FemConstraintDisplacement001
1,
2,
5,
6,
7,
8,
9,
10,
11,
12,
13,
14,
15,
16,
17,
18,
19,
20,
21,

***********************************************************
** Materials
** written by write_materials function
** Young's modulus unit is MPa = N/mm2
** FreeCAD material name: CalculiX-Steel
** SolidMaterial
*MATERIAL, NAME=SolidMaterial
*ELASTIC
210000, 0.300

***********************************************************
** Sections
** written by write_femelementsets function
*SHELL SECTION, ELSET=SolidMaterialElementGeometry2D, MATERIAL=SolidMaterial
1 

***********************************************************
** At least one step is needed to run an CalculiX analysis of FreeCAD
** written by write_step_begin function
*STEP
*STATIC


***********************************************************
** Displacement constraint applied
** written by write_constraints_displacement function
** FemConstraintDisplacement
*BOUNDARY
FemConstraintDisplacement,2
FemConstraintDisplacement,3
** FemConstraintDisplacement001
*BOUNDARY
FemConstraintDisplacement001,1
FemConstraintDisplacement001,3


***********************************************************
** Node loads Constraints
** written by write_constraints_force function
*CLOAD
** FemConstraintForce
** node load on shape: Plane:Vertex2
2,2,-1.0000000000000E+02



***********************************************************
** Outputs --> frd file
** written by write_outputs_types function
*NODE FILE, OUTPUT=2d
U
*EL FILE
S, E
** outputs --> dat file
*NODE PRINT , NSET=Nall
U 
*EL PRINT , ELSET=Eall
S 

***********************************************************
** written by write_step_end function
*END STEP 

***********************************************************
** CalculiX Input file
** written by write_footer function
**   written by    --> FreeCAD 0.17.13541 (Git)
**   written on    --> Sat Sep  5 06:01:29 2020
**   file name     --> 
**   analysis name --> Analysis
**
**
**
**   Units
**
**   Geometry (mesh data)        --> mm
**   Materials (Young's modulus) --> N/mm2 = MPa
**   Loads (nodal loads)         --> N
**
