


***********************************************************
**Nodes and Elements
** written by femmesh.writeABAQUS

***********************************************************
** Element sets for materials and FEM element type (solid, shell, beam, fluid)
** written by write_element_sets_material_and_femelement_type function
*ELSET,ELSET=SolidMaterialSolid
42124,
42125,
42126,
42128,
42129,
42133,
42135,
42136,
42139,
42140,
*ELSET,ELSET=SolidMaterial001Solid
42122,
42123,
42127,
42130,
42131,
42132,
42134,
42144,
42146,
42152,
***********************************************************
**Node sets for constraints
** written by write_node_sets_constraints_fixed
** written by write_node_sets_constraints_displacement
** written by write_node_sets_constraints_planerotation

***********************************************************
** Surfaces for contact constraint
** written by write_surfaces_contraints_contact

***********************************************************
** Node sets for transform constraint
** written by write_node_sets_constraints_transform

***********************************************************
** Materials
** written by write_materials function
** Young's modulus unit is MPa = N/mm2
** FreeCAD material name: None
** SolidMaterial_non-design
*MATERIAL, NAME=SolidMaterial
*ELASTIC
114000, 0.330
** FreeCAD material name: None
** SolidMaterial001_design_space
*MATERIAL, NAME=SolidMaterial001
*ELASTIC
114000, 0.330

***********************************************************
** Sections
** written by write_femelementsets function
*SOLID SECTION, ELSET=SolidMaterialSolid, MATERIAL=SolidMaterial
*SOLID SECTION, ELSET=SolidMaterial001Solid, MATERIAL=SolidMaterial001

***********************************************************
** At least one step is needed to run an CalculiX analysis of FreeCAD
** written by write_step_begin function
*STEP
*STATIC, SOLVER=ITERATIVE CHOLESKY


***********************************************************
** Fixed Constraints
** written by write_constraints_fixed function
** FemConstraintFixed
*BOUNDARY
FemConstraintFixed,1
FemConstraintFixed,2
FemConstraintFixed,3


***********************************************************
** Element + CalculiX face + load in [MPa]
** written by write_constraints_pressure

***********************************************************
** Outputs --> frd file
** written by write_outputs_types function
*NODE FILE
U
*EL FILE
**S, E
S
** outputs --> dat file                                     deactivated some outputs
***NODE PRINT , NSET=Nall
**U 
***EL PRINT , ELSET=Eall
**S 

***********************************************************
** written by write_step_end function
*END STEP 

***********************************************************
** CalculiX Input file
** written by write_footer function
**   written by    --> FreeCAD 0.17.12852 (Git)
**   written on    --> Thu Dec 28 13:52:58 2017
**   file name     --> fc_model.FCStd
**   analysis name --> Analysis
**
**
**
**   Units
**
**   Geometry (mesh data)        --> mm
**   Materials (Young's modulus) --> N/mm2 = MPa
**   Loads (nodal loads)         --> N
**




*STEP
*STATIC, SOLVER=ITERATIVE CHOLESKY

*BOUNDARY
FemConstraintFixed,1
FemConstraintFixed,2
FemConstraintFixed,3

*NODE FILE
U
*EL FILE
S

*END STEP



*STEP
*STATIC, SOLVER=ITERATIVE CHOLESKY

*BOUNDARY
FemConstraintFixed,1
FemConstraintFixed,2
FemConstraintFixed,3

*NODE FILE
U
*EL FILE
S

*END STEP



*STEP
*STATIC, SOLVER=ITERATIVE CHOLESKY

*BOUNDARY
FemConstraintFixed,1
FemConstraintFixed,2
FemConstraintFixed,3

*NODE FILE
U
*EL FILE
S

*END STEP
