*MATERIAL, NAME=SolidMaterial, TYPE=ISO
*ELASTIC
210000